powerfactory/powerfactory-converter/src/test/resources/Transformer-VlVh.xiidm
<?xml version="1.0" encoding="UTF-8"?>
<iidm:network xmlns:iidm="http://www.powsybl.org/schema/iidm/1_18" id="Transformer-VlVh" caseDate="2021-01-01T10:00:00.000+02:00" forecastDistance="0" sourceFormat="POWER-FACTORY" minimumValidationLevel="STEADY_STATE_HYPOTHESIS">
    <iidm:substation id="S8">
        <iidm:voltageLevel id="VL8" nominalV="110.0" topologyKind="NODE_BREAKER">
            <iidm:nodeBreakerTopology>
                <iidm:busbarSection id="VL8_1 Bus 1-Slack" node="0"/>
                <iidm:switch id="VL8_Switch" kind="BREAKER" open="false" node1="0" node2="1"/>
                <iidm:switch id="VL8_Switch#0" kind="BREAKER" open="false" node1="0" node2="2"/>
                <iidm:bus v="116.59999084472656" angle="0.0" nodes="0,1,2"/>
            </iidm:nodeBreakerTopology>
            <iidm:generator id="sym_1_1" energySource="OTHER" minP="0.0" maxP="52.790000915527344" targetP="52.790000915527344" localTargetV="116.59999370574951" localTargetQ="0.0" node="2">
                <iidm:minMaxReactiveLimits minQ="0.0" maxQ="0.0"/>
                <iidm:voltageRegulation mode="VOLTAGE" regulating="true"/>
            </iidm:generator>
        </iidm:voltageLevel>
    </iidm:substation>
    <iidm:substation id="S9">
        <iidm:voltageLevel id="VL9" nominalV="110.0" topologyKind="NODE_BREAKER">
            <iidm:nodeBreakerTopology>
                <iidm:busbarSection id="VL9_2 Bus 2" node="0"/>
                <iidm:switch id="VL9_Switch" kind="BREAKER" open="false" node1="0" node2="1"/>
                <iidm:switch id="VL9_Switch#0" kind="BREAKER" open="false" node1="0" node2="2"/>
                <iidm:bus v="112.57804870605469" angle="-1.1524275541305542" nodes="0,1,2"/>
            </iidm:nodeBreakerTopology>
        </iidm:voltageLevel>
        <iidm:voltageLevel id="VL10" nominalV="35.0" topologyKind="NODE_BREAKER">
            <iidm:nodeBreakerTopology>
                <iidm:busbarSection id="VL10_3 Bus 2-Load" node="0"/>
                <iidm:switch id="VL10_Switch" kind="BREAKER" open="false" node1="0" node2="1"/>
                <iidm:switch id="VL10_Switch#0" kind="BREAKER" open="false" node1="0" node2="2"/>
                <iidm:bus v="24.30230140686035" angle="-25.546560287475586" nodes="0,1,2"/>
            </iidm:nodeBreakerTopology>
            <iidm:load id="lod_3_1" loadType="UNDEFINED" p0="50.0" q0="25.0" node="1"/>
        </iidm:voltageLevel>
        <iidm:twoWindingsTransformer id="trf_2_3_1" r="0.3589249906539917" x="7.370114132992315" ratedU1="110.0" ratedU2="35.0" ratedS="20.0" node1="2" voltageLevelId1="VL9" node2="2" voltageLevelId2="VL10">
            <iidm:ratioTapChanger tapPosition="12" loadTapChangingCapabilities="false">
                <iidm:step r="-26.529395662837775" x="-26.529395662837775" g="36.10885727997057" b="36.10885727997057" rho="0.8571499538421631"/>
                <iidm:step r="-24.474492894101473" x="-24.474492894101473" g="32.405598892284715" b="32.405598892284715" rho="0.8690541243553161"/>
                <iidm:step r="-22.391248270243924" x="-22.391248270243924" g="28.851447512276973" b="28.851447512276973" rho="0.8809582948684693"/>
                <iidm:step r="-20.279661791265134" x="-20.279661791265134" g="25.438504460638534" b="25.438504460638534" rho="0.8928624653816223"/>
                <iidm:step r="-18.139733457165097" x="-18.139733457165097" g="22.159387237852624" b="22.159387237852624" rho="0.9047666358947755"/>
                <iidm:step r="-15.971463267943797" x="-15.971463267943797" g="19.007189568077788" b="19.007189568077788" rho="0.9166708064079285"/>
                <iidm:step r="-13.774851223601281" x="-13.774851223601281" g="15.975445005403909" b="15.975445005403909" rho="0.9285749769210816"/>
                <iidm:step r="-11.549897324137515" x="-11.549897324137515" g="13.058093744066856" b="13.058093744066856" rho="0.9404791474342348"/>
                <iidm:step r="-9.296601569552498" x="-9.296601569552498" g="10.249452314271611" b="10.249452314271611" rho="0.9523833179473877"/>
                <iidm:step r="-7.014963959846243" x="-7.014963959846243" g="7.544185880421628" b="7.544185880421628" rho="0.9642874884605407"/>
                <iidm:step r="-4.7049844950187385" x="-4.7049844950187385" g="4.937282889442196" b="4.937282889442196" rho="0.9761916589736938"/>
                <iidm:step r="-2.366663175069994" x="-2.366663175069994" g="2.4240318440757136" b="2.4240318440757136" rho="0.9880958294868468"/>
                <iidm:step rho="1.0"/>
                <iidm:step r="2.395005030191233" x="2.395005030191233" g="-2.3389861932084144" b="-2.3389861932084144" rho="1.011904170513153"/>
                <iidm:step r="4.818351915503727" x="4.818351915503727" g="-4.596859068522563" b="-4.596859068522563" rho="1.0238083410263061"/>
                <iidm:step r="7.2700406559374375" x="7.2700406559374375" g="-6.7773262799961875" b="-6.7773262799961875" rho="1.0357125115394592"/>
                <iidm:step r="9.75007125149241" x="9.75007125149241" g="-8.883886033340339" b="-8.883886033340339" rho="1.0476166820526123"/>
                <iidm:step r="12.25844370216862" x="12.25844370216862" g="-10.919841125440266" b="-10.919841125440266" rho="1.0595208525657653"/>
                <iidm:step r="14.79515800796609" x="14.79515800796609" g="-12.888311898084936" b="-12.888311898084936" rho="1.0714250230789184"/>
                <iidm:step r="17.36021416888478" x="17.36021416888478" g="-14.792248200828029" b="-14.792248200828029" rho="1.0833291935920715"/>
                <iidm:step r="19.95361218492473" x="19.95361218492473" g="-16.63444044866572" b="-16.63444044866572" rho="1.0952333641052245"/>
                <iidm:step r="22.57535205608592" x="22.57535205608592" g="-18.41752985196916" b="-18.41752985196916" rho="1.1071375346183776"/>
                <iidm:step r="25.225433782368366" x="25.225433782368366" g="-20.144017888736666" b="-20.144017888736666" rho="1.1190417051315307"/>
                <iidm:step r="27.9038573637721" x="27.9038573637721" g="-21.816275082627556" b="-21.816275082627556" rho="1.130945875644684"/>
                <iidm:step r="30.610622800296984" x="30.610622800296984" g="-23.43654914432226" b="-23.43654914432226" rho="1.1428500461578368"/>
            </iidm:ratioTapChanger>
        </iidm:twoWindingsTransformer>
    </iidm:substation>
    <iidm:line id="lne_1_2_1" r="2.344939947128296" x="7.1595683097839355" b1="0.0014300827178955079" b2="0.0014300827178955079" node1="1" voltageLevelId1="VL8" node2="1" voltageLevelId2="VL9"/>
</iidm:network>
